/*--------------------------------*- C++ -*----------------------------------*\
| =========                 |                                                 |
| \      /  F ield         | OpenFOAM: The Open Source CFD Toolbox           |
|  \    /   O peration     | Version:  v2212                                 |
|   \  /    A nd           | Website:  www.openfoam.com                      |
|    \/     M anipulation  |                                                 |
\*---------------------------------------------------------------------------*/
FoamFile
{
    version     2.0;
    format      ascii;
    class       dictionary;
    object      meshConvertOptions;
}
// * * * * * * * * * * * * * * * * * * * * * * * * * * * * * * * * * * * * * //

convertToMeters 0.001;  // Convert mm to m

mergeSurfacePatches true;

// How to handle faces on the boundary
boundary
{
    inlet
    {
        type            patch;
        physicalType    inlet;
    }
    
    outlet
    {
        type            patch;
        physicalType    outlet;
    }
    
    walls
    {
        type            wall;
        physicalType    wall;
    }
    
    defaultFaces
    {
        type            wall;
        physicalType    wall;
    }
}

// ************************************************************************* //
